test/fixtures/synthetic_v35_generic_connector.raw
@!IC,SBASE,REV,XFRRAT,NXFRAT,BASFRQ
0,  100.00, 35,     0,     1, 60.00
Synthetic fictional v35 case with a node-breaker SUBSTATION section including a TYPE 1 generic connector device
Second comment line
0 / END OF SYSTEM-WIDE DATA, BEGIN BUS DATA
@!   I,'NAME        ', BASKV, IDE,AREA,ZONE,OWNER, VM,        VA,    NVHI,   NVLO,   EVHI,   EVLO
     1,'BUSONE      ', 138.0000,3,   1,   1,   1,1.00000,   0.0000,1.10000,0.90000,1.10000,0.90000
     2,'BUSTWO      ', 138.0000,2,   1,   1,   1,1.00000,   0.0000,1.10000,0.90000,1.10000,0.90000
     3,'BUSTHREE    ', 138.0000,1,   1,   1,   1,1.00000,   0.0000,1.10000,0.90000,1.10000,0.90000
0 / END OF BUS DATA, BEGIN LOAD DATA
     3,'1 ',   1,   1,   1,    50.000,    10.000,     0.000,     0.000,     0.000,     0.000,   1,    1,  0,     0.000,     0.000,    0,'           V'
0 / END OF LOAD DATA, BEGIN FIXED SHUNT DATA
0 / END OF FIXED SHUNT DATA, BEGIN GENERATOR DATA
     1,'1 ',    80.000,     0.000,    80.000,   -80.000,1.00000,   0,   0,   100.000, 0.00000E+0, 1.00000E-1, 0.00000E+0, 0.00000E+0,1.00000,1,  100.0,   120.000,     0.000, 0,1,1.0000
     2,'1 ',    30.000,     0.000,    50.000,   -50.000,1.00000,   0,   0,   100.000, 0.00000E+0, 1.00000E-1, 0.00000E+0, 0.00000E+0,1.00000,1,  100.0,   120.000,     0.000, 0,1,1.0000
0 / END OF GENERATOR DATA, BEGIN BRANCH DATA
     1,     2,'1 ', 1.00000E-02, 1.00000E-01,0.02000,'BRANCH_1_2                              ', 500.00, 500.00, 500.00,   0.00,   0.00,   0.00,   0.00,   0.00,   0.00,   0.00,   0.00,   0.00, 0.00000, 0.00000, 0.00000, 0.00000,1,1,  1.00,   1,1.0000
     2,     3,'1 ', 1.00000E-02, 1.00000E-01,0.02000,'BRANCH_2_3                              ', 500.00, 500.00, 500.00,   0.00,   0.00,   0.00,   0.00,   0.00,   0.00,   0.00,   0.00,   0.00, 0.00000, 0.00000, 0.00000, 0.00000,1,1,  1.00,   1,1.0000
0 / END OF BRANCH DATA, BEGIN SYSTEM SWITCHING DEVICE DATA
0 / END OF SYSTEM SWITCHING DEVICE DATA, BEGIN TRANSFORMER DATA
0 / END OF TRANSFORMER DATA, BEGIN AREA DATA
0 / END OF AREA DATA, BEGIN TWO-TERMINAL DC DATA
0 / END OF TWO-TERMINAL DC DATA, BEGIN VSC DC LINE DATA
0 / END OF VSC DC LINE DATA, BEGIN IMPEDANCE CORRECTION DATA
0 / END OF IMPEDANCE CORRECTION DATA, BEGIN MULTI-TERMINAL DC DATA
0 / END OF MULTI-TERMINAL DC DATA, BEGIN MULTI-SECTION LINE DATA
0 / END OF MULTI-SECTION LINE DATA, BEGIN ZONE DATA
0 / END OF ZONE DATA, BEGIN INTER-AREA TRANSFER DATA
0 / END OF INTER-AREA TRANSFER DATA, BEGIN OWNER DATA
0 / END OF OWNER DATA, BEGIN FACTS DEVICE DATA
0 / END OF FACTS DEVICE DATA, BEGIN SWITCHED SHUNT DATA
0 / END OF SWITCHED SHUNT DATA, BEGIN GNE DATA
0 / END OF GNE DATA, BEGIN INDUCTION MACHINE DATA
0 / END OF INDUCTION MACHINE DATA, BEGIN SUBSTATION DATA
@! BEGIN SUBSTATION DATA BLOCK
@!  IS,                'N A M E'                 ,    LATITUDE,   LONGITUDE,    SGR
     1,'GCSUB                                   ',   0.0000000,   0.0000000, 0.0000
@! BEGIN SUBSTATION NODE DATA
@!  NI,                'N A M E'                 ,     I,STATUS,   VM  ,   VA
     1,'GCSUB$NODE1                             ',     1,     1
     2,'GCSUB$NODE2                             ',     1,     1
     3,'GCSUB$NODE3                             ',     2,     1
     0 / END OF SUBSTATION NODE DATA, BEGIN SUBSTATION SWITCHING DEVICE DATA
@!  NI, NJ,CKTID,                'N A M E'                 ,  TYPE,STATUS, NSTAT,     X  ,  RATE1,  RATE2,  RATE3
     1,  2, '1 ','SYNTHSUB$CB$1                           ',     2,     1,     1, 0.00010,   0.00,   0.00,   0.00
     2,  3, '1 ','GCSUB$GC$1                              ',     1,     1,     1, 0.00010,   0.00,   0.00,   0.00
     0 / END OF SUBSTATION SWITCHING DEVICE DATA, BEGIN SUBSTATION TERMINAL DATA
@!   I, NI, TYP,     J,     K, ID
     1,  1, 'B',     2,       '1 '
     2,  3, 'B',     3,       '1 '
     0 / END OF SUBSTATION TERMINAL DATA
0 / END OF SUBSTATION DATA
Q
